Gen_5_Mutant_13_100815
     RDKit          3D

 45 49  0  0  0  0  0  0  0  0999 V2000
    4.9814   -3.2812   -0.6224 C   0  0  0  0  0  0  0  0  0  0  0  0
    3.6657   -3.0996   -1.3787 C   0  0  1  0  0  0  0  0  0  0  0  0
    2.4964   -3.9213   -0.8488 C   0  0  0  0  0  0  0  0  0  0  0  0
    2.5548   -2.4166   -0.5902 C   0  0  2  0  0  0  0  0  0  0  0  0
    1.6541   -1.5419   -1.4264 C   0  0  0  0  0  0  0  0  0  0  0  0
    1.0071   -2.0253   -2.3966 O   0  0  0  0  0  0  0  0  0  0  0  0
    1.5187   -0.1407   -1.1102 N   0  0  0  0  0  0  0  0  0  0  0  0
    0.2753    0.4161   -0.9090 C   0  0  0  0  0  0  0  0  0  0  0  0
   -0.9635   -0.3959   -0.8683 C   0  0  0  0  0  0  0  0  0  0  0  0
   -1.0652   -1.5073   -0.0153 C   0  0  0  0  0  0  0  0  0  0  0  0
   -2.2430   -2.2568    0.0356 C   0  0  0  0  0  0  0  0  0  0  0  0
   -3.3432   -1.8962   -0.7547 C   0  0  0  0  0  0  0  0  0  0  0  0
   -4.5313   -2.6422   -0.7113 C   0  0  0  0  0  0  0  0  0  0  0  0
   -5.6232   -2.2689   -1.5002 C   0  0  0  0  0  0  0  0  0  0  0  0
   -5.5385   -1.1514   -2.3350 C   0  0  0  0  0  0  0  0  0  0  0  0
   -4.3612   -0.3996   -2.3872 C   0  0  0  0  0  0  0  0  0  0  0  0
   -3.2569   -0.7642   -1.6010 C   0  0  0  0  0  0  0  0  0  0  0  0
   -2.0695   -0.0181   -1.6455 C   0  0  0  0  0  0  0  0  0  0  0  0
    0.1558    1.7542   -0.7092 N   0  0  0  0  0  0  0  0  0  0  0  0
    1.2317    2.5770   -0.6767 C   0  0  0  0  0  0  0  0  0  0  0  0
    1.0623    3.9549   -0.4620 C   0  0  0  0  0  0  0  0  0  0  0  0
   -0.5610    4.6112   -0.2432 Cl  0  0  0  0  0  0  0  0  0  0  0  0
    2.1858    4.8012   -0.4221 C   0  0  0  0  0  0  0  0  0  0  0  0
    1.9836    6.5327   -0.1525 Cl  0  0  0  0  0  0  0  0  0  0  0  0
    3.4722    4.2621   -0.5976 C   0  0  0  0  0  0  0  0  0  0  0  0
    4.9036    5.2844   -0.5554 Cl  0  0  0  0  0  0  0  0  0  0  0  0
    3.6349    2.8901   -0.8124 C   0  0  0  0  0  0  0  0  0  0  0  0
    2.5175    2.0388   -0.8525 C   0  0  0  0  0  0  0  0  0  0  0  0
    2.6374    0.6561   -1.0792 C   0  0  0  0  0  0  0  0  0  0  0  0
    3.7805    0.1547   -1.2775 O   0  0  0  0  0  0  0  0  0  0  0  0
    5.5177   -4.1626   -1.0309 H   0  0  0  0  0  0  0  0  0  0  0  0
    4.8278   -3.4312    0.4684 H   0  0  0  0  0  0  0  0  0  0  0  0
    5.6122   -2.3803   -0.7708 H   0  0  0  0  0  0  0  0  0  0  0  0
    3.6771   -2.9476   -2.4800 H   0  0  0  0  0  0  0  0  0  0  0  0
    1.7959   -4.2669   -1.6377 H   0  0  0  0  0  0  0  0  0  0  0  0
    2.7148   -4.5442    0.0449 H   0  0  0  0  0  0  0  0  0  0  0  0
    2.7886   -2.1176    0.4544 H   0  0  0  0  0  0  0  0  0  0  0  0
   -0.2350   -1.7885    0.6206 H   0  0  0  0  0  0  0  0  0  0  0  0
   -2.2956   -3.1134    0.6971 H   0  0  0  0  0  0  0  0  0  0  0  0
   -4.6153   -3.5108   -0.0689 H   0  0  0  0  0  0  0  0  0  0  0  0
   -6.5376   -2.8469   -1.4640 H   0  0  0  0  0  0  0  0  0  0  0  0
   -6.3875   -0.8671   -2.9432 H   0  0  0  0  0  0  0  0  0  0  0  0
   -4.3137    0.4637   -3.0403 H   0  0  0  0  0  0  0  0  0  0  0  0
   -1.9988    0.8497   -2.2922 H   0  0  0  0  0  0  0  0  0  0  0  0
    4.6346    2.4951   -0.9475 H   0  0  0  0  0  0  0  0  0  0  0  0
  1  2  1  0
  2  3  1  0
  3  4  1  0
  4  5  1  0
  5  6  2  0
  5  7  1  0
  7  8  1  0
  8  9  1  0
  9 10  2  0
 10 11  1  0
 11 12  2  0
 12 13  1  0
 13 14  2  0
 14 15  1  0
 15 16  2  0
 16 17  1  0
 17 18  2  0
  8 19  2  0
 19 20  1  0
 20 21  2  0
 21 22  1  0
 21 23  1  0
 23 24  1  0
 23 25  2  0
 25 26  1  0
 25 27  1  0
 27 28  2  0
 28 29  1  0
 29 30  2  0
  4  2  1  0
 29  7  1  0
 18  9  1  0
 28 20  1  0
 17 12  1  0
  1 31  1  0
  1 32  1  0
  1 33  1  0
  2 34  1  6
  3 35  1  0
  3 36  1  0
  4 37  1  1
 10 38  1  0
 11 39  1  0
 13 40  1  0
 14 41  1  0
 15 42  1  0
 16 43  1  0
 18 44  1  0
 27 45  1  0
M  END
>  <UniqueID>  (1) 
1

>  <SMILES>  (1) 
C[C@H]1C[C@@H]1C(=O)n1c(-c2ccc3ccccc3c2)nc2c(Cl)c(Cl)c(Cl)cc2c1=O

>  <Energy>  (1) 
340.47151355815714

>  <Genealogy>  (1) 
C[C@H]1C[C@@H]1C(=O)n1c(-c2ccc3ccccc3c2)nc2c(Cl)c(Cl)c(Cl)cc2c1=O (3D coordinates assigned)
C[C@H]1C[C@@H]1C(=O)n1c(-c2ccc3ccccc3c2)nc2c(Cl)c(Cl)c(Cl)cc2c1=O (nonaromatic ring conformer: 340.47151355815714 kcal/mol)

$$$$
