Gen_5_Cross_919682
     RDKit          3D

 35 38  0  0  0  0  0  0  0  0999 V2000
   -2.8218    0.4088    3.3280 O   0  0  0  0  0  0  0  0  0  0  0  0
   -2.6606   -0.0634    2.1957 C   0  0  0  0  0  0  0  0  0  0  0  0
   -2.4947   -0.5489    1.0306 N   0  0  0  0  0  0  0  0  0  0  0  0
   -2.5376    0.2605   -0.1561 C   0  0  0  0  0  0  0  0  0  0  0  0
   -1.4156    0.2640   -1.0174 C   0  0  0  0  0  0  0  0  0  0  0  0
   -0.2477   -0.6142   -0.7740 C   0  0  0  0  0  0  0  0  0  0  0  0
    1.0056   -0.0965   -0.8697 N   0  0  0  0  0  0  0  0  0  0  0  0
    2.1102   -0.8602   -0.6649 C   0  0  0  0  0  0  0  0  0  0  0  0
    3.3915   -0.2934   -0.7639 C   0  0  0  0  0  0  0  0  0  0  0  0
    3.5606    1.4179   -1.1591 Cl  0  0  0  0  0  0  0  0  0  0  0  0
    4.5300   -1.0922   -0.5472 C   0  0  0  0  0  0  0  0  0  0  0  0
    6.1431   -0.3887   -0.6685 Cl  0  0  0  0  0  0  0  0  0  0  0  0
    4.3789   -2.4547   -0.2332 C   0  0  0  0  0  0  0  0  0  0  0  0
    5.7762   -3.4872    0.0448 Cl  0  0  0  0  0  0  0  0  0  0  0  0
    3.1020   -3.0163   -0.1370 C   0  0  0  0  0  0  0  0  0  0  0  0
    1.9617   -2.2258   -0.3515 C   0  0  0  0  0  0  0  0  0  0  0  0
    0.6598   -2.7496   -0.2726 C   0  0  0  0  0  0  0  0  0  0  0  0
    0.4718   -3.9687   -0.0076 O   0  0  0  0  0  0  0  0  0  0  0  0
   -0.4116   -1.9384   -0.4894 N   0  0  0  0  0  0  0  0  0  0  0  0
   -1.3737    1.1519   -2.1017 C   0  0  0  0  0  0  0  0  0  0  0  0
   -2.4438    2.0012   -2.3696 C   0  0  0  0  0  0  0  0  0  0  0  0
   -3.5906    1.9678   -1.5694 C   0  0  0  0  0  0  0  0  0  0  0  0
   -4.6797    2.8009   -1.8719 C   0  0  0  0  0  0  0  0  0  0  0  0
   -5.8402    2.7497   -1.0995 C   0  0  0  0  0  0  0  0  0  0  0  0
   -5.9288    1.8615   -0.0285 C   0  0  0  0  0  0  0  0  0  0  0  0
   -4.8521    1.0294    0.2884 C   0  0  0  0  0  0  0  0  0  0  0  0
   -3.6564    1.0841   -0.4600 C   0  0  0  0  0  0  0  0  0  0  0  0
    3.0056   -4.0681    0.1042 H   0  0  0  0  0  0  0  0  0  0  0  0
   -1.3714   -2.3518   -0.4602 H   0  0  0  0  0  0  0  0  0  0  0  0
   -0.5083    1.1808   -2.7529 H   0  0  0  0  0  0  0  0  0  0  0  0
   -2.3819    2.6724   -3.2182 H   0  0  0  0  0  0  0  0  0  0  0  0
   -4.6360    3.4855   -2.7108 H   0  0  0  0  0  0  0  0  0  0  0  0
   -6.6782    3.3911   -1.3401 H   0  0  0  0  0  0  0  0  0  0  0  0
   -6.8390    1.8115    0.5552 H   0  0  0  0  0  0  0  0  0  0  0  0
   -4.9787    0.3316    1.1038 H   0  0  0  0  0  0  0  0  0  0  0  0
  1  2  2  0
  2  3  2  0
  3  4  1  0
  4  5  2  0
  5  6  1  0
  6  7  2  0
  7  8  1  0
  8  9  2  0
  9 10  1  0
  9 11  1  0
 11 12  1  0
 11 13  2  0
 13 14  1  0
 13 15  1  0
 15 16  2  0
 16 17  1  0
 17 18  2  0
 17 19  1  0
  5 20  1  0
 20 21  2  0
 21 22  1  0
 22 23  2  0
 23 24  1  0
 24 25  2  0
 25 26  1  0
 26 27  2  0
 27  4  1  0
 19  6  1  0
 27 22  1  0
 16  8  1  0
 15 28  1  0
 19 29  1  0
 20 30  1  0
 21 31  1  0
 23 32  1  0
 24 33  1  0
 25 34  1  0
 26 35  1  0
M  END
>  <UniqueID>  (1) 
1

>  <SMILES>  (1) 
O=C=Nc1c(-c2nc3c(Cl)c(Cl)c(Cl)cc3c(=O)[nH]2)ccc2ccccc12

>  <Energy>  (1) 
65.02229666230171

>  <Genealogy>  (1) 
O=C=Nc1c(-c2nc3c(Cl)c(Cl)c(Cl)cc3c(=O)[nH]2)ccc2ccccc12 (3D coordinates assigned)
O=C=Nc1c(-c2nc3c(Cl)c(Cl)c(Cl)cc3c(=O)[nH]2)ccc2ccccc12 (optimized conformer: 65.02229666230171 kcal/mol)

$$$$
