Gen_5_Mutant_11_262233
     RDKit          3D

 20 21  0  0  0  0  0  0  0  0999 V2000
    1.2048   -3.6102    3.1487 N   0  0  0  0  0  0  0  0  0  0  0  0
    1.2246   -2.2207    2.7841 C   0  0  0  0  0  0  0  0  0  0  0  0
    1.7436   -1.3030    3.7113 C   0  0  0  0  0  0  0  0  0  0  0  0
    1.7674    0.0623    3.4333 C   0  0  0  0  0  0  0  0  0  0  0  0
    1.2749    0.5402    2.2222 C   0  0  0  0  0  0  0  0  0  0  0  0
    0.7598   -0.3483    1.2687 C   0  0  0  0  0  0  0  0  0  0  0  0
    0.2751    0.1465    0.0475 C   0  0  0  0  0  0  0  0  0  0  0  0
   -0.2275   -0.7269   -0.9158 C   0  0  0  0  0  0  0  0  0  0  0  0
   -0.2467   -2.0990   -0.6732 C   0  0  0  0  0  0  0  0  0  0  0  0
    0.2300   -2.6104    0.5368 C   0  0  0  0  0  0  0  0  0  0  0  0
    0.7335   -1.7467    1.5353 C   0  0  0  0  0  0  0  0  0  0  0  0
    0.6998   -4.3404    2.6055 H   0  0  0  0  0  0  0  0  0  0  0  0
    1.6495   -3.9241    4.0403 H   0  0  0  0  0  0  0  0  0  0  0  0
    2.1250   -1.6490    4.6640 H   0  0  0  0  0  0  0  0  0  0  0  0
    2.1669    0.7543    4.1635 H   0  0  0  0  0  0  0  0  0  0  0  0
    1.3008    1.6062    2.0282 H   0  0  0  0  0  0  0  0  0  0  0  0
    0.2881    1.2095   -0.1628 H   0  0  0  0  0  0  0  0  0  0  0  0
   -0.5982   -0.3393   -1.8560 H   0  0  0  0  0  0  0  0  0  0  0  0
   -0.6305   -2.7724   -1.4290 H   0  0  0  0  0  0  0  0  0  0  0  0
    0.2038   -3.6810    0.6584 H   0  0  0  0  0  0  0  0  0  0  0  0
  1  2  1  0
  2  3  2  0
  3  4  1  0
  4  5  2  0
  5  6  1  0
  6  7  2  0
  7  8  1  0
  8  9  2  0
  9 10  1  0
 10 11  2  0
 11  2  1  0
 11  6  1  0
  1 12  1  0
  1 13  1  0
  3 14  1  0
  4 15  1  0
  5 16  1  0
  7 17  1  0
  8 18  1  0
  9 19  1  0
 10 20  1  0
M  END
>  <UniqueID>  (1) 
1

>  <SMILES>  (1) 
Nc1cccc2ccccc12

>  <Energy>  (1) 
26.70925188285842

>  <Genealogy>  (1) 
Nc1cccc2ccccc12 (3D coordinates assigned)
Nc1cccc2ccccc12 (optimized conformer: 26.70925188285842 kcal/mol)

$$$$
