Gen_5_Mutant_5_640013
     RDKit          3D

 41 43  0  0  0  0  0  0  0  0999 V2000
    0.8763    0.9181    6.2075 C   0  0  0  0  0  0  0  0  0  0  0  0
    0.3342    0.5837    4.4533 Si  0  0  0  0  0  4  0  0  0  0  0  0
    0.9132   -1.1191    3.9494 C   0  0  0  0  0  0  0  0  0  0  0  0
   -1.5302    0.6497    4.3664 C   0  0  0  0  0  0  0  0  0  0  0  0
    1.0712    1.8903    3.3295 C   0  0  0  0  0  0  0  0  0  0  0  0
    0.6523    1.6620    1.9106 C   0  0  0  0  0  0  0  0  0  0  0  0
   -0.4896    2.1423    1.3774 N   0  0  0  0  0  0  0  0  0  0  0  0
   -0.5530    1.6952    0.1311 N   0  0  0  0  0  0  0  0  0  0  0  0
    0.5042    0.9490   -0.1497 N   0  0  0  0  0  0  0  0  0  0  0  0
    0.6768    0.2592   -1.3956 C   0  0  0  0  0  0  0  0  0  0  0  0
    0.6062   -1.1414   -1.4139 C   0  0  0  0  0  0  0  0  0  0  0  0
    0.7314   -1.8436   -2.6130 C   0  0  0  0  0  0  0  0  0  0  0  0
    0.9231   -1.1577   -3.8126 C   0  0  0  0  0  0  0  0  0  0  0  0
    0.9959    0.2428   -3.8214 C   0  0  0  0  0  0  0  0  0  0  0  0
    1.1939    0.9323   -5.0279 C   0  0  0  0  0  0  0  0  0  0  0  0
    1.2781    2.3259   -5.0354 C   0  0  0  0  0  0  0  0  0  0  0  0
    1.1703    3.0419   -3.8423 C   0  0  0  0  0  0  0  0  0  0  0  0
    0.9721    2.3707   -2.6329 C   0  0  0  0  0  0  0  0  0  0  0  0
    0.8736    0.9655   -2.6051 C   0  0  0  0  0  0  0  0  0  0  0  0
    1.2852    0.8953    0.9494 C   0  0  0  0  0  0  0  0  0  0  0  0
    2.5757    0.1936    1.0809 C   0  0  0  0  0  0  0  0  0  0  0  0
    3.1166   -0.3649    0.0913 O   0  0  0  0  0  0  0  0  0  0  0  0
    1.9833    0.8764    6.2659 H   0  0  0  0  0  0  0  0  0  0  0  0
    0.5270    1.9247    6.5164 H   0  0  0  0  0  0  0  0  0  0  0  0
    0.4408    0.1521    6.8814 H   0  0  0  0  0  0  0  0  0  0  0  0
    0.4842   -1.8730    4.6407 H   0  0  0  0  0  0  0  0  0  0  0  0
    2.0204   -1.1630    3.9976 H   0  0  0  0  0  0  0  0  0  0  0  0
    0.5765   -1.3359    2.9149 H   0  0  0  0  0  0  0  0  0  0  0  0
   -1.8766    1.6685    4.6354 H   0  0  0  0  0  0  0  0  0  0  0  0
   -1.8627    0.4049    3.3368 H   0  0  0  0  0  0  0  0  0  0  0  0
   -1.9588   -0.0869    5.0764 H   0  0  0  0  0  0  0  0  0  0  0  0
    2.1767    1.8740    3.4185 H   0  0  0  0  0  0  0  0  0  0  0  0
    0.7136    2.8865    3.6637 H   0  0  0  0  0  0  0  0  0  0  0  0
    0.4457   -1.6877   -0.4927 H   0  0  0  0  0  0  0  0  0  0  0  0
    0.6748   -2.9245   -2.6130 H   0  0  0  0  0  0  0  0  0  0  0  0
    1.0159   -1.7218   -4.7332 H   0  0  0  0  0  0  0  0  0  0  0  0
    1.2860    0.3936   -5.9636 H   0  0  0  0  0  0  0  0  0  0  0  0
    1.4322    2.8524   -5.9685 H   0  0  0  0  0  0  0  0  0  0  0  0
    1.2436    4.1217   -3.8539 H   0  0  0  0  0  0  0  0  0  0  0  0
    0.9063    2.9566   -1.7256 H   0  0  0  0  0  0  0  0  0  0  0  0
    3.0810    0.1658    2.0360 H   0  0  0  0  0  0  0  0  0  0  0  0
  1  2  1  0
  2  3  1  0
  2  4  1  0
  2  5  1  0
  5  6  1  0
  6  7  1  0
  7  8  2  0
  8  9  1  0
  9 10  1  0
 10 11  2  0
 11 12  1  0
 12 13  2  0
 13 14  1  0
 14 15  2  0
 15 16  1  0
 16 17  2  0
 17 18  1  0
 18 19  2  0
  9 20  1  0
 20 21  1  0
 21 22  2  0
 20  6  2  0
 19 10  1  0
 19 14  1  0
  1 23  1  0
  1 24  1  0
  1 25  1  0
  3 26  1  0
  3 27  1  0
  3 28  1  0
  4 29  1  0
  4 30  1  0
  4 31  1  0
  5 32  1  0
  5 33  1  0
 11 34  1  0
 12 35  1  0
 13 36  1  0
 15 37  1  0
 16 38  1  0
 17 39  1  0
 18 40  1  0
 21 41  1  0
M  END
>  <UniqueID>  (1) 
1

>  <SMILES>  (1) 
C[Si](C)(C)Cc1nnn(-c2cccc3ccccc23)c1C=O

>  <Energy>  (1) 
72.26597473712023

>  <Genealogy>  (1) 
C[Si](C)(C)Cc1nnn(-c2cccc3ccccc23)c1C=O (3D coordinates assigned)
C[Si](C)(C)Cc1nnn(-c2cccc3ccccc23)c1C=O (optimized conformer: 72.26597473712023 kcal/mol)

$$$$
