Gen_5_Mutant_31_459222
     RDKit          3D

 41 43  0  0  0  0  0  0  0  0999 V2000
   -1.6057   -0.5333   -2.8286 O   0  0  0  0  0  0  0  0  0  0  0  0
   -1.4889    0.3045   -1.8921 C   0  0  0  0  0  0  0  0  0  0  0  0
   -0.2975    0.3388   -1.0886 N   0  0  0  0  0  0  0  0  0  0  0  0
    0.7604   -0.6311   -1.1889 C   0  0  0  0  0  0  0  0  0  0  0  0
    0.5670   -1.7095   -1.8145 O   0  0  0  0  0  0  0  0  0  0  0  0
    2.0719   -0.3980   -0.5360 C   0  0  0  0  0  0  0  0  0  0  0  0
    2.5250    0.9069   -0.2696 C   0  0  0  0  0  0  0  0  0  0  0  0
    3.7638    1.1206    0.3404 C   0  0  0  0  0  0  0  0  0  0  0  0
    4.5760    0.0341    0.6902 C   0  0  0  0  0  0  0  0  0  0  0  0
    5.8217    0.2393    1.3039 C   0  0  0  0  0  0  0  0  0  0  0  0
    6.6240   -0.8533    1.6451 C   0  0  0  0  0  0  0  0  0  0  0  0
    6.1910   -2.1545    1.3767 C   0  0  0  0  0  0  0  0  0  0  0  0
    4.9529   -2.3720    0.7653 C   0  0  0  0  0  0  0  0  0  0  0  0
    4.1372   -1.2833    0.4177 C   0  0  0  0  0  0  0  0  0  0  0  0
    2.8923   -1.4893   -0.1960 C   0  0  0  0  0  0  0  0  0  0  0  0
   -2.5641    1.2218   -1.6216 N   0  0  0  0  0  4  0  0  0  0  0  0
   -3.3490    0.7875   -0.4484 C   0  0  0  0  0  0  0  0  0  0  0  0
   -4.3614    1.8747   -0.0467 C   0  0  0  0  0  0  0  0  0  0  0  0
   -5.2356    1.4106    1.1422 C   0  0  0  0  0  0  0  0  0  0  0  0
   -5.1192    0.0233    1.4171 O   0  0  0  0  0  0  0  0  0  0  0  0
   -5.2966   -0.7229    0.2299 C   0  0  0  0  0  0  0  0  0  0  0  0
   -4.0939   -0.5445   -0.7146 C   0  0  0  0  0  0  0  0  0  0  0  0
   -0.2295    1.0842   -0.3607 H   0  0  0  0  0  0  0  0  0  0  0  0
    1.9357    1.7691   -0.5523 H   0  0  0  0  0  0  0  0  0  0  0  0
    4.0891    2.1361    0.5327 H   0  0  0  0  0  0  0  0  0  0  0  0
    6.1735    1.2413    1.5188 H   0  0  0  0  0  0  0  0  0  0  0  0
    7.5837   -0.6911    2.1184 H   0  0  0  0  0  0  0  0  0  0  0  0
    6.8166   -2.9967    1.6430 H   0  0  0  0  0  0  0  0  0  0  0  0
    4.6339   -3.3879    0.5649 H   0  0  0  0  0  0  0  0  0  0  0  0
    2.5573   -2.5003   -0.3986 H   0  0  0  0  0  0  0  0  0  0  0  0
   -3.1817    1.3034   -2.4636 H   0  0  0  0  0  0  0  0  0  0  0  0
   -2.1469    2.1640   -1.4376 H   0  0  0  0  0  0  0  0  0  0  0  0
   -2.6649    0.6411    0.4207 H   0  0  0  0  0  0  0  0  0  0  0  0
   -5.0188    2.1011   -0.9153 H   0  0  0  0  0  0  0  0  0  0  0  0
   -3.8259    2.8107    0.2253 H   0  0  0  0  0  0  0  0  0  0  0  0
   -4.9187    1.9630    2.0522 H   0  0  0  0  0  0  0  0  0  0  0  0
   -6.3014    1.6755    0.9627 H   0  0  0  0  0  0  0  0  0  0  0  0
   -5.3951   -1.7967    0.4956 H   0  0  0  0  0  0  0  0  0  0  0  0
   -6.2427   -0.4338   -0.2847 H   0  0  0  0  0  0  0  0  0  0  0  0
   -4.4589   -0.5850   -1.7641 H   0  0  0  0  0  0  0  0  0  0  0  0
   -3.3840   -1.3883   -0.5708 H   0  0  0  0  0  0  0  0  0  0  0  0
  1  2  2  0
  2  3  1  0
  3  4  1  0
  4  5  2  0
  4  6  1  0
  6  7  2  0
  7  8  1  0
  8  9  2  0
  9 10  1  0
 10 11  2  0
 11 12  1  0
 12 13  2  0
 13 14  1  0
 14 15  2  0
  2 16  1  0
 16 17  1  0
 17 18  1  0
 18 19  1  0
 19 20  1  0
 20 21  1  0
 21 22  1  0
 15  6  1  0
 22 17  1  0
 14  9  1  0
  3 23  1  0
  7 24  1  0
  8 25  1  0
 10 26  1  0
 11 27  1  0
 12 28  1  0
 13 29  1  0
 15 30  1  0
 16 31  1  0
 16 32  1  0
 17 33  1  0
 18 34  1  0
 18 35  1  0
 19 36  1  0
 19 37  1  0
 21 38  1  0
 21 39  1  0
 22 40  1  0
 22 41  1  0
M  CHG  1  16   1
M  END
>  <UniqueID>  (1) 
1

>  <SMILES>  (1) 
O=C(NC(=O)c1ccc2ccccc2c1)[NH2+]C1CCOCC1

>  <Energy>  (1) 
55.136890645993894

>  <Genealogy>  (1) 
O=C(NC(=O)c1ccc2ccccc2c1)[NH2+]C1CCOCC1 (protonated)
O=C(NC(=O)c1ccc2ccccc2c1)[NH2+]C1CCOCC1 (3D coordinates assigned)
O=C(NC(=O)c1ccc2ccccc2c1)[NH2+]C1CCOCC1 (nonaromatic ring conformer: 55.136890645993894 kcal/mol)

$$$$
