Gen_5_Mutant_23_740725
     RDKit          3D

 40 41  0  0  0  0  0  0  0  0999 V2000
   -2.4261    2.9831    0.4114 C   0  0  0  0  0  0  0  0  0  0  0  0
   -2.9814    1.6500    0.9104 C   0  0  0  0  0  0  0  0  0  0  0  0
   -3.4232    1.6744    2.3852 C   0  0  0  0  0  0  0  0  0  0  0  0
   -2.3235    1.9292    3.4419 C   0  0  2  0  0  0  0  0  0  0  0  0
   -1.8239    3.2372    3.3308 O   0  0  0  0  0  0  0  0  0  0  0  0
   -1.1899    0.8740    3.4518 C   0  0  0  0  0  0  0  0  0  0  0  0
   -0.1051    1.1236    2.4373 C   0  0  0  0  0  0  0  0  0  0  0  0
    0.6105    2.1571    2.5390 O   0  0  0  0  0  0  0  0  0  0  0  0
    0.1557    0.1609    1.4031 N   0  0  0  0  0  0  0  0  0  0  0  0
    0.9935    0.4323    0.2659 C   0  0  0  0  0  0  0  0  0  0  0  0
    1.3319    1.6194    0.0049 O   0  0  0  0  0  0  0  0  0  0  0  0
    1.4353   -0.6614   -0.6331 C   0  0  0  0  0  0  0  0  0  0  0  0
    1.7920   -0.3760   -1.9631 C   0  0  0  0  0  0  0  0  0  0  0  0
    2.2126   -1.3933   -2.8233 C   0  0  0  0  0  0  0  0  0  0  0  0
    2.2922   -2.7154   -2.3670 C   0  0  0  0  0  0  0  0  0  0  0  0
    2.7144   -3.7443   -3.2235 C   0  0  0  0  0  0  0  0  0  0  0  0
    2.7954   -5.0585   -2.7543 C   0  0  0  0  0  0  0  0  0  0  0  0
    2.4578   -5.3547   -1.4312 C   0  0  0  0  0  0  0  0  0  0  0  0
    2.0360   -4.3390   -0.5684 C   0  0  0  0  0  0  0  0  0  0  0  0
    1.9479   -3.0149   -1.0275 C   0  0  0  0  0  0  0  0  0  0  0  0
    1.5258   -1.9871   -0.1700 C   0  0  0  0  0  0  0  0  0  0  0  0
   -1.4211    3.1763    0.8371 H   0  0  0  0  0  0  0  0  0  0  0  0
   -3.1118    3.8157    0.6765 H   0  0  0  0  0  0  0  0  0  0  0  0
   -2.3236    2.9481   -0.6937 H   0  0  0  0  0  0  0  0  0  0  0  0
   -3.8748    1.4049    0.2960 H   0  0  0  0  0  0  0  0  0  0  0  0
   -2.2497    0.8397    0.7317 H   0  0  0  0  0  0  0  0  0  0  0  0
   -4.2149    2.4462    2.5063 H   0  0  0  0  0  0  0  0  0  0  0  0
   -3.9026    0.6968    2.6116 H   0  0  0  0  0  0  0  0  0  0  0  0
   -2.8430    1.8412    4.4255 H   0  0  0  0  0  0  0  0  0  0  0  0
   -1.3604    3.4418    4.1849 H   0  0  0  0  0  0  0  0  0  0  0  0
   -1.6249   -0.1393    3.3142 H   0  0  0  0  0  0  0  0  0  0  0  0
   -0.7140    0.8779    4.4564 H   0  0  0  0  0  0  0  0  0  0  0  0
   -0.3501   -0.7517    1.4453 H   0  0  0  0  0  0  0  0  0  0  0  0
    1.7346    0.6365   -2.3434 H   0  0  0  0  0  0  0  0  0  0  0  0
    2.4751   -1.1458   -3.8451 H   0  0  0  0  0  0  0  0  0  0  0  0
    2.9818   -3.5325   -4.2520 H   0  0  0  0  0  0  0  0  0  0  0  0
    3.1215   -5.8491   -3.4177 H   0  0  0  0  0  0  0  0  0  0  0  0
    2.5233   -6.3741   -1.0733 H   0  0  0  0  0  0  0  0  0  0  0  0
    1.7781   -4.5879    0.4542 H   0  0  0  0  0  0  0  0  0  0  0  0
    1.2915   -2.2216    0.8611 H   0  0  0  0  0  0  0  0  0  0  0  0
  1  2  1  0
  2  3  1  0
  3  4  1  0
  4  5  1  0
  4  6  1  0
  6  7  1  0
  7  8  2  0
  7  9  1  0
  9 10  1  0
 10 11  2  0
 10 12  1  0
 12 13  2  0
 13 14  1  0
 14 15  2  0
 15 16  1  0
 16 17  2  0
 17 18  1  0
 18 19  2  0
 19 20  1  0
 20 21  2  0
 21 12  1  0
 20 15  1  0
  1 22  1  0
  1 23  1  0
  1 24  1  0
  2 25  1  0
  2 26  1  0
  3 27  1  0
  3 28  1  0
  4 29  1  1
  5 30  1  0
  6 31  1  0
  6 32  1  0
  9 33  1  0
 13 34  1  0
 14 35  1  0
 16 36  1  0
 17 37  1  0
 18 38  1  0
 19 39  1  0
 21 40  1  0
M  END
>  <UniqueID>  (1) 
1

>  <SMILES>  (1) 
CCC[C@H](O)CC(=O)NC(=O)c1ccc2ccccc2c1

>  <Energy>  (1) 
42.40097079108053

>  <Genealogy>  (1) 
CCC[C@H](O)CC(=O)NC(=O)c1ccc2ccccc2c1 (3D coordinates assigned)
CCC[C@H](O)CC(=O)NC(=O)c1ccc2ccccc2c1 (optimized conformer: 42.40097079108053 kcal/mol)

$$$$
