Gen_5_Cross_582839
     RDKit          3D

 24 25  0  0  0  0  0  0  0  0999 V2000
   -1.1452   -1.9438   -3.1404 N   0  0  0  0  0  0  0  0  0  0  0  0
   -0.8637   -2.3109   -1.7870 C   0  0  0  0  0  0  0  0  0  0  0  0
   -1.3031   -3.4092   -1.3510 O   0  0  0  0  0  0  0  0  0  0  0  0
   -0.0561   -1.4385   -0.8991 C   0  0  0  0  0  0  0  0  0  0  0  0
    0.6118   -1.9913    0.2046 C   0  0  0  0  0  0  0  0  0  0  0  0
    1.3624   -1.1940    1.0771 C   0  0  0  0  0  0  0  0  0  0  0  0
    1.9673   -1.8376    2.2083 N   0  0  0  0  0  0  0  0  0  0  0  0
    1.8065   -1.4246    3.4016 C   0  0  0  0  0  0  0  0  0  0  0  0
    1.6499   -1.0231    4.5617 O   0  0  0  0  0  0  0  0  0  0  0  0
    1.5044    0.1931    0.8101 C   0  0  0  0  0  0  0  0  0  0  0  0
    2.3426    1.0273    1.5804 C   0  0  0  0  0  0  0  0  0  0  0  0
    2.4412    2.3920    1.2977 C   0  0  0  0  0  0  0  0  0  0  0  0
    1.7221    2.9450    0.2391 C   0  0  0  0  0  0  0  0  0  0  0  0
    0.9138    2.1335   -0.5572 C   0  0  0  0  0  0  0  0  0  0  0  0
    0.8091    0.7582   -0.2915 C   0  0  0  0  0  0  0  0  0  0  0  0
    0.0294   -0.0563   -1.1248 C   0  0  0  0  0  0  0  0  0  0  0  0
   -0.6770   -1.1317   -3.5982 H   0  0  0  0  0  0  0  0  0  0  0  0
   -1.7652   -2.5474   -3.7249 H   0  0  0  0  0  0  0  0  0  0  0  0
    0.5384   -3.0541    0.4035 H   0  0  0  0  0  0  0  0  0  0  0  0
    2.9460    0.6376    2.3870 H   0  0  0  0  0  0  0  0  0  0  0  0
    3.0842    3.0222    1.8987 H   0  0  0  0  0  0  0  0  0  0  0  0
    1.8031    4.0030    0.0255 H   0  0  0  0  0  0  0  0  0  0  0  0
    0.3793    2.5788   -1.3881 H   0  0  0  0  0  0  0  0  0  0  0  0
   -0.5154    0.3954   -1.9443 H   0  0  0  0  0  0  0  0  0  0  0  0
  1  2  1  0
  2  3  2  0
  2  4  1  0
  4  5  2  0
  5  6  1  0
  6  7  1  0
  7  8  2  0
  8  9  2  0
  6 10  2  0
 10 11  1  0
 11 12  2  0
 12 13  1  0
 13 14  2  0
 14 15  1  0
 15 16  2  0
 16  4  1  0
 15 10  1  0
  1 17  1  0
  1 18  1  0
  5 19  1  0
 11 20  1  0
 12 21  1  0
 13 22  1  0
 14 23  1  0
 16 24  1  0
M  END
>  <UniqueID>  (1) 
1

>  <SMILES>  (1) 
NC(=O)c1cc(N=C=O)c2ccccc2c1

>  <Energy>  (1) 
37.9123397394928

>  <Genealogy>  (1) 
NC(=O)c1cc(N=C=O)c2ccccc2c1 (protonated)
NC(=O)c1cc(N=C=O)c2ccccc2c1 (3D coordinates assigned)
NC(=O)c1cc(N=C=O)c2ccccc2c1 (optimized conformer: 37.9123397394928 kcal/mol)

$$$$
