Gen_5_Cross_330232
     RDKit          3D

 46 49  0  0  0  0  0  0  0  0999 V2000
   -0.2047    4.8237    2.6177 C   0  0  0  0  0  0  0  0  0  0  0  0
   -0.7537    3.4220    2.9088 C   0  0  0  0  0  0  0  0  0  0  0  0
   -1.7847    3.0029    1.8538 C   0  0  0  0  0  0  0  0  0  0  0  0
    0.3674    2.4048    3.0097 C   0  0  0  0  0  0  0  0  0  0  0  0
    0.5706    1.6994    4.2085 C   0  0  0  0  0  0  0  0  0  0  0  0
    1.5879    0.7470    4.3060 C   0  0  0  0  0  0  0  0  0  0  0  0
    2.4152    0.4878    3.2118 C   0  0  0  0  0  0  0  0  0  0  0  0
    2.2388    1.1912    2.0111 C   0  0  0  0  0  0  0  0  0  0  0  0
    3.0959    0.8798    0.8156 C   0  0  0  0  0  0  0  0  0  0  0  0
    2.4238   -0.1465   -0.0388 C   0  0  0  0  0  0  0  0  0  0  0  0
    1.4672    0.0844   -1.0023 C   0  0  0  0  0  0  0  0  0  0  0  0
    1.0795   -1.1269   -1.4373 N   0  0  0  0  0  0  0  0  0  0  0  0
    0.1430   -1.3991   -2.4927 C   0  0  0  0  0  0  0  0  0  0  0  0
    0.2713   -0.7036   -3.7059 C   0  0  0  0  0  0  0  0  0  0  0  0
   -0.5751   -0.9777   -4.7796 C   0  0  0  0  0  0  0  0  0  0  0  0
   -1.5682   -1.9481   -4.6614 C   0  0  0  0  0  0  0  0  0  0  0  0
   -1.7368   -2.6427   -3.4556 C   0  0  0  0  0  0  0  0  0  0  0  0
   -2.7545   -3.6022   -3.3352 C   0  0  0  0  0  0  0  0  0  0  0  0
   -2.9493   -4.2729   -2.1273 C   0  0  0  0  0  0  0  0  0  0  0  0
   -2.1400   -3.9856   -1.0284 C   0  0  0  0  0  0  0  0  0  0  0  0
   -1.1202   -3.0361   -1.1320 C   0  0  0  0  0  0  0  0  0  0  0  0
   -0.8865   -2.3653   -2.3506 C   0  0  0  0  0  0  0  0  0  0  0  0
    1.7719   -2.0481   -0.7839 N   0  0  0  0  0  0  0  0  0  0  0  0
    2.5908   -1.4781    0.0888 N   0  0  0  0  0  0  0  0  0  0  0  0
    1.2090    2.1407    1.9121 C   0  0  0  0  0  0  0  0  0  0  0  0
    0.5429    5.1074    3.3892 H   0  0  0  0  0  0  0  0  0  0  0  0
   -1.0294    5.5676    2.6439 H   0  0  0  0  0  0  0  0  0  0  0  0
    0.2767    4.8669    1.6177 H   0  0  0  0  0  0  0  0  0  0  0  0
   -1.2900    3.4796    3.8824 H   0  0  0  0  0  0  0  0  0  0  0  0
   -1.3393    2.9991    0.8363 H   0  0  0  0  0  0  0  0  0  0  0  0
   -2.1696    1.9857    2.0810 H   0  0  0  0  0  0  0  0  0  0  0  0
   -2.6431    3.7081    1.8603 H   0  0  0  0  0  0  0  0  0  0  0  0
   -0.0619    1.8804    5.0686 H   0  0  0  0  0  0  0  0  0  0  0  0
    1.7313    0.2037    5.2311 H   0  0  0  0  0  0  0  0  0  0  0  0
    3.1905   -0.2634    3.2989 H   0  0  0  0  0  0  0  0  0  0  0  0
    3.2735    1.8019    0.2204 H   0  0  0  0  0  0  0  0  0  0  0  0
    4.0900    0.5007    1.1375 H   0  0  0  0  0  0  0  0  0  0  0  0
    1.0797    1.0366   -1.3419 H   0  0  0  0  0  0  0  0  0  0  0  0
    1.0505    0.0386   -3.8274 H   0  0  0  0  0  0  0  0  0  0  0  0
   -0.4545   -0.4406   -5.7116 H   0  0  0  0  0  0  0  0  0  0  0  0
   -2.2119   -2.1486   -5.5098 H   0  0  0  0  0  0  0  0  0  0  0  0
   -3.4039   -3.8274   -4.1730 H   0  0  0  0  0  0  0  0  0  0  0  0
   -3.7380   -5.0089   -2.0392 H   0  0  0  0  0  0  0  0  0  0  0  0
   -2.3080   -4.4958   -0.0886 H   0  0  0  0  0  0  0  0  0  0  0  0
   -0.5400   -2.8213   -0.2464 H   0  0  0  0  0  0  0  0  0  0  0  0
    1.0608    2.6660    0.9768 H   0  0  0  0  0  0  0  0  0  0  0  0
  1  2  1  0
  2  3  1  0
  2  4  1  0
  4  5  2  0
  5  6  1  0
  6  7  2  0
  7  8  1  0
  8  9  1  0
  9 10  1  0
 10 11  2  0
 11 12  1  0
 12 13  1  0
 13 14  2  0
 14 15  1  0
 15 16  2  0
 16 17  1  0
 17 18  2  0
 18 19  1  0
 19 20  2  0
 20 21  1  0
 21 22  2  0
 12 23  1  0
 23 24  2  0
  8 25  2  0
 25  4  1  0
 24 10  1  0
 22 13  1  0
 22 17  1  0
  1 26  1  0
  1 27  1  0
  1 28  1  0
  2 29  1  0
  3 30  1  0
  3 31  1  0
  3 32  1  0
  5 33  1  0
  6 34  1  0
  7 35  1  0
  9 36  1  0
  9 37  1  0
 11 38  1  0
 14 39  1  0
 15 40  1  0
 16 41  1  0
 18 42  1  0
 19 43  1  0
 20 44  1  0
 21 45  1  0
 25 46  1  0
M  END
>  <UniqueID>  (1) 
1

>  <SMILES>  (1) 
CC(C)c1cccc(Cc2cn(-c3cccc4ccccc34)nn2)c1

>  <Energy>  (1) 
89.63134745528193

>  <Genealogy>  (1) 
CC(C)c1cccc(Cc2cn(-c3cccc4ccccc34)nn2)c1 (protonated)
CC(C)c1cccc(Cc2cn(-c3cccc4ccccc34)nn2)c1 (3D coordinates assigned)
CC(C)c1cccc(Cc2cn(-c3cccc4ccccc34)nn2)c1 (optimized conformer: 89.63134745528193 kcal/mol)

$$$$
